build/datapreprocessor/datapreprocessor/datapreprocessor/data/opendss/8500Bus/IEEE8500u_EXP_POWERS.CSV
Element, Terminal, P(kW), Q(kvar),  P_Normal, Q_Normal, P_Emergency, Q_Emergency
"Line.HVMV_SUB_CONNECTOR",   1,     11982.1,       547.0,      3318.1,       151.5,         0.0,         0.0
"Line.HVMV_SUB_CONNECTOR",   2,    -11982.1,      -546.9
"Line.LN5502549-1"      ,   1,        13.8,         3.7,         0.0,         0.0,         0.0,         0.0
"Line.LN5502549-1"      ,   2,       -13.8,        -3.7
"Line.LN6259988-1"      ,   1,        10.4,         2.8,         0.0,         0.0,         0.0,         0.0
"Line.LN6259988-1"      ,   2,       -10.4,        -2.8
"Line.LN6077796-1"      ,   1,        11.9,         3.2,         0.0,         0.0,         0.0,         0.0
"Line.LN6077796-1"      ,   2,       -11.9,        -3.2
"Line.LN5835135-2"      ,   1,       115.3,        30.6,         0.0,         0.0,         0.0,         0.0
"Line.LN5835135-2"      ,   2,      -115.3,       -30.6
"Line.LN5896826-1"      ,   1,         5.9,         1.6,         0.0,         0.0,         0.0,         0.0
"Line.LN5896826-1"      ,   2,        -5.9,        -1.6
"Line.LN5714038-1"      ,   1,        15.8,         4.1,         0.0,         0.0,         0.0,         0.0
"Line.LN5714038-1"      ,   2,       -15.8,        -4.1
"Line.LN5653457-1"      ,   1,       554.5,       147.8,         0.0,         0.0,         0.0,         0.0
"Line.LN5653457-1"      ,   2,      -554.2,      -147.7
"Line.LN5835173-1"      ,   1,       994.9,       268.9,         0.0,         0.0,         0.0,         0.0
"Line.LN5835173-1"      ,   2,      -994.8,      -268.8
"Line.LN6321415-1"      ,   1,        10.0,         2.6,         0.0,         0.0,         0.0,         0.0
"Line.LN6321415-1"      ,   2,       -10.0,        -2.6
"Line.LN5565092-1"      ,   1,        15.6,         4.2,         0.0,         0.0,         0.0,         0.0
"Line.LN5565092-1"      ,   2,       -15.6,        -4.2
"Line.LN6073648-1"      ,   1,        21.7,         5.8,         0.0,         0.0,         0.0,         0.0
"Line.LN6073648-1"      ,   2,       -21.7,        -5.8
"Line.LN5774457-1"      ,   1,       547.4,       145.6,         0.0,         0.0,         0.0,         0.0
"Line.LN5774457-1"      ,   2,      -547.3,      -145.5
"Line.LN5534966-3"      ,   1,        78.6,        21.1,         0.0,         0.0,         0.0,         0.0
"Line.LN5534966-3"      ,   2,       -78.6,       -21.1
"Line.LN5859996-1"      ,   1,        19.8,         5.3,         0.0,         0.0,         0.0,         0.0
"Line.LN5859996-1"      ,   2,       -19.8,        -5.3
"Line.LN6138610-2"      ,   1,      2259.6,       613.8,         0.0,         0.0,         0.0,         0.0
"Line.LN6138610-2"      ,   2,     -2258.2,      -613.4
"Line.LN6258435-3"      ,   1,        18.1,         4.9,         0.0,         0.0,         0.0,         0.0
"Line.LN6258435-3"      ,   2,       -18.1,        -4.9
"Line.LN5804790-1"      ,   1,        10.4,         2.8,         0.0,         0.0,         0.0,         0.0
"Line.LN5804790-1"      ,   2,       -10.4,        -2.8
"Line.LN6900591-14"     ,   1,        32.8,         8.8,         0.0,         0.0,         0.0,         0.0
"Line.LN6900591-14"     ,   2,       -32.8,        -8.8
"Line.LN6409873-1"      ,   1,        76.5,        20.0,         0.0,         0.0,         0.0,         0.0
"Line.LN6409873-1"      ,   2,       -76.5,       -20.0
"Line.LN6014135-1"      ,   1,        67.7,        18.1,         0.0,         0.0,         0.0,         0.0
"Line.LN6014135-1"      ,   2,       -67.7,       -18.1
"Line.LN6077784-1"      ,   1,      1212.6,       325.0,         0.0,         0.0,         0.0,         0.0
"Line.LN6077784-1"      ,   2,     -1212.3,      -324.7
"Line.LN5744338-1"      ,   1,       186.7,        50.0,         0.0,         0.0,         0.0,         0.0
"Line.LN5744338-1"      ,   2,      -186.6,       -50.0
"Line.LN6991381-4"      ,   1,        36.3,         9.8,         0.0,         0.0,         0.0,         0.0
"Line.LN6991381-4"      ,   2,       -36.3,        -9.8
"Line.LN5774480-1"      ,   1,       225.5,        60.5,         0.0,         0.0,         0.0,         0.0
"Line.LN5774480-1"      ,   2,      -225.2,       -60.3
"Line.LN5986938-3"      ,   1,        38.0,        10.0,         0.0,         0.0,         0.0,         0.0
"Line.LN5986938-3"      ,   2,       -38.0,       -10.0
"Line.LN5894230-1"      ,   1,        10.3,         2.7,         0.0,         0.0,         0.0,         0.0
"Line.LN5894230-1"      ,   2,       -10.3,        -2.8
"Line.LN5683858-3"      ,   1,        68.9,        18.5,         0.0,         0.0,         0.0,         0.0
"Line.LN5683858-3"      ,   2,       -68.9,       -18.5
"Line.LN5920279-5"      ,   1,      6340.1,       799.1,         0.0,         0.0,         0.0,         0.0
"Line.LN5920279-5"      ,   2,     -6339.0,      -796.7
"Line.LN6439600-1"      ,   1,         9.1,         2.4,         0.0,         0.0,         0.0,         0.0
"Line.LN6439600-1"      ,   2,        -9.1,        -2.4
"Line.LN5589097-1"      ,   1,        13.7,         3.7,         0.0,         0.0,         0.0,         0.0
"Line.LN5589097-1"      ,   2,       -13.7,        -3.7
"Line.LN5651975-1"      ,   1,       785.4,       209.9,         0.0,         0.0,         0.0,         0.0
"Line.LN5651975-1"      ,   2,      -785.1,      -209.8
"Line.LN5865236-1"      ,   1,        18.0,         4.8,         0.0,         0.0,         0.0,         0.0
"Line.LN5865236-1"      ,   2,       -18.0,        -4.8
"Line.LN5593232-1"      ,   1,        10.3,         2.7,         0.0,         0.0,         0.0,         0.0
"Line.LN5593232-1"      ,   2,       -10.3,        -2.8
"Line.LN5740283-1"      ,   1,        12.4,         3.3,         0.0,         0.0,         0.0,         0.0
"Line.LN5740283-1"      ,   2,       -12.4,        -3.3
"Line.LN6106559-1"      ,   1,        27.7,         7.4,         0.0,         0.0,         0.0,         0.0
"Line.LN6106559-1"      ,   2,       -27.7,        -7.4
"Line.LN5714056-3"      ,   1,       626.2,       166.8,         0.0,         0.0,         0.0,         0.0
"Line.LN5714056-3"      ,   2,      -625.5,      -166.6
"Line.LN5985355-3"      ,   1,       395.5,       106.4,         0.0,         0.0,         0.0,         0.0
"Line.LN5985355-3"      ,   2,      -395.2,      -106.2
"Line.LN5531956-1"      ,   1,         9.1,         2.4,         0.0,         0.0,         0.0,         0.0
"Line.LN5531956-1"      ,   2,        -9.1,        -2.5
"Line.LN5650048-1"      ,   1,         9.9,         2.7,         0.0,         0.0,         0.0,         0.0
"Line.LN5650048-1"      ,   2,        -9.9,        -2.7
"Line.LN6290203-1"      ,   1,       821.7,       221.1,         0.0,         0.0,         0.0,         0.0
"Line.LN6290203-1"      ,   2,      -821.5,      -220.9
"Line.LN6134414-1"      ,   1,        20.7,         5.5,         0.0,         0.0,         0.0,         0.0
"Line.LN6134414-1"      ,   2,       -20.7,        -5.5
"Line.LN6259998-2"      ,   1,        12.4,         3.3,         0.0,         0.0,         0.0,         0.0
"Line.LN6259998-2"      ,   2,       -12.4,        -3.3
"Line.LN6078767-1"      ,   1,      2834.8,      -148.9,         0.0,         0.0,         0.0,         0.0
"Line.LN6078767-1"      ,   2,     -2834.5,       149.4
"Line.LN6017300-1"      ,   1,         6.2,         1.7,         0.0,         0.0,         0.0,         0.0
"Line.LN6017300-1"      ,   2,        -6.2,        -1.7
"Line.LN8979257-2"      ,   1,        29.4,         7.7,         0.0,         0.0,         0.0,         0.0
"Line.LN8979257-2"      ,   2,       -29.4,        -7.8
"Line.LN81048109-1"     ,   1,        30.2,         8.0,         0.0,         0.0,         0.0,         0.0
"Line.LN81048109-1"     ,   2,       -30.2,        -8.0
"Line.293471"           ,   1,        29.3,         7.9,         0.0,         0.0,         0.0,         0.0
"Line.293471"           ,   2,       -29.3,        -7.9
"Line.LN5534965-2"      ,   1,         9.1,         2.4,         0.0,         0.0,         0.0,         0.0
"Line.LN5534965-2"      ,   2,        -9.1,        -2.4
"Line.LN5655683-1"      ,   1,       142.5,        38.1,         0.0,         0.0,         0.0,         0.0
"Line.LN5655683-1"      ,   2,      -142.5,       -38.1
"Line.LN5686247-1"      ,   1,        13.9,         3.7,         0.0,         0.0,         0.0,         0.0
"Line.LN5686247-1"      ,   2,       -13.9,        -3.7
"Line.LN6048642-1"      ,   1,         0.0,        -0.0,         0.0,         0.0,         0.0,         0.0
"Line.LN6048642-1"      ,   2,         0.0,        -0.0
"Line.LN5928544-3"      ,   1,       104.0,        27.8,         0.0,         0.0,         0.0,         0.0
"Line.LN5928544-3"      ,   2,      -103.9,       -27.7
"Line.LN6108172-1"      ,   1,        18.1,         4.8,         0.0,         0.0,         0.0,         0.0
"Line.LN6108172-1"      ,   2,       -18.1,        -4.9
"Line.LN5532754-1"      ,   1,       708.7,       189.1,         0.0,         0.0,         0.0,         0.0
"Line.LN5532754-1"      ,   2,      -708.6,      -189.0
"Line.LN5591834-1"      ,   1,        26.9,         7.2,         0.0,         0.0,         0.0,         0.0
"Line.LN5591834-1"      ,   2,       -26.9,        -7.2
"Line.LN6347196-2"      ,   1,       452.7,       120.4,         0.0,         0.0,         0.0,         0.0
"Line.LN6347196-2"      ,   2,      -452.7,      -120.4
"Line.LN5532741-1"      ,   1,        63.4,        16.9,         0.0,         0.0,         0.0,         0.0
"Line.LN5532741-1"      ,   2,       -63.4,       -16.9
"Line.LN5804803-1"      ,   1,         5.4,         1.4,         0.0,         0.0,         0.0,         0.0
"Line.LN5804803-1"      ,   2,        -5.4,        -1.5
"Line.LN6169248-1"      ,   1,      1656.6,       449.3,         0.0,         0.0,         0.0,         0.0
"Line.LN6169248-1"      ,   2,     -1655.6,      -448.4
"Line.LN5532786-2"      ,   1,        15.9,         4.2,         0.0,         0.0,         0.0,         0.0
"Line.LN5532786-2"      ,   2,       -15.9,        -4.2
"Line.LN5744339-1"      ,   1,       114.9,        30.7,         0.0,         0.0,         0.0,         0.0
"Line.LN5744339-1"      ,   2,      -114.8,       -30.7
"Line.LN5531255-3"      ,   1,       118.5,        31.6,         0.0,         0.0,         0.0,         0.0
"Line.LN5531255-3"      ,   2,      -118.4,       -31.6
"Line.LN5926308-2"      ,   1,       766.1,       205.1,         0.0,         0.0,         0.0,         0.0
"Line.LN5926308-2"      ,   2,      -765.9,      -205.0
"Line.LN5683856-3"      ,   1,         9.1,         2.4,         0.0,         0.0,         0.0,         0.0
"Line.LN5683856-3"      ,   2,        -9.1,        -2.4
"Line.LN6171502-1"      ,   1,        14.5,         3.9,         0.0,         0.0,         0.0,         0.0
"Line.LN6171502-1"      ,   2,       -14.5,        -3.9
"Line.LN5593228-1"      ,   1,        10.0,         2.7,         0.0,         0.0,         0.0,         0.0
"Line.LN5593228-1"      ,   2,       -10.0,        -2.7
"Line.LN6380800-1"      ,   1,        10.0,         2.7,         0.0,         0.0,         0.0,         0.0
"Line.LN6380800-1"      ,   2,       -10.0,        -2.7
"Line.LN6199525-2"      ,   1,         3.6,         1.0,         0.0,         0.0,         0.0,         0.0
"Line.LN6199525-2"      ,   2,        -3.6,        -1.0
"Line.LN5772710-2"      ,   1,        72.2,        19.3,         0.0,         0.0,         0.0,         0.0
"Line.LN5772710-2"      ,   2,       -72.2,       -19.3
"Line.LN8961760-1"      ,   1,        36.4,         9.6,         0.0,         0.0,         0.0,         0.0
"Line.LN8961760-1"      ,   2,       -36.4,        -9.6
"Line.LN6047556-1"      ,   1,        10.3,         2.8,         0.0,         0.0,         0.0,         0.0
"Line.LN6047556-1"      ,   2,       -10.3,        -2.8
"Line.LN6138603-1"      ,   1,        15.9,         4.2,         0.0,         0.0,         0.0,         0.0
"Line.LN6138603-1"      ,   2,       -15.9,        -4.2
"Line.LN6108139-1"      ,   1,         6.0,         1.6,         0.0,         0.0,         0.0,         0.0
"Line.LN6108139-1"      ,   2,        -6.0,        -1.6
"Line.LN6388581-2"      ,   1,         5.4,         1.4,         0.0,         0.0,         0.0,         0.0
"Line.LN6388581-2"      ,   2,        -5.4,        -1.4
"Line.LN5774460-1"      ,   1,         5.4,         1.5,         0.0,         0.0,         0.0,         0.0
"Line.LN5774460-1"      ,   2,        -5.4,        -1.5
"Line.LN5624387-1"      ,   1,        15.6,         4.2,         0.0,         0.0,         0.0,         0.0
"Line.LN5624387-1"      ,   2,       -15.6,        -4.2
"Line.LN6137087-1"      ,   1,        82.9,        22.1,         0.0,         0.0,         0.0,         0.0
"Line.LN6137087-1"      ,   2,       -82.9,       -22.1
"Line.LN6077809-1"      ,   1,       104.2,        27.9,         0.0,         0.0,         0.0,         0.0
"Line.LN6077809-1"      ,   2,      -104.2,       -27.9
"Line.LN6440079-1"      ,   1,        26.9,         7.2,         0.0,         0.0,         0.0,         0.0
"Line.LN6440079-1"      ,   2,       -26.9,        -7.2
"Line.LN5804794-1"      ,   1,        82.4,        22.2,         0.0,         0.0,         0.0,         0.0
"Line.LN5804794-1"      ,   2,       -82.4,       -22.2
"Line.LN5654484-1"      ,   1,        10.3,         2.8,         0.0,         0.0,         0.0,         0.0
"Line.LN5654484-1"      ,   2,       -10.3,        -2.8
"Line.LN5774465-1"      ,   1,        18.2,         4.7,         0.0,         0.0,         0.0,         0.0
"Line.LN5774465-1"      ,   2,       -18.2,        -4.8
"Line.LN5473349-1"      ,   1,      6051.6,       651.8,         0.0,         0.0,         0.0,         0.0
"Line.LN5473349-1"      ,   2,     -6050.7,      -649.6
"Line.LN6169253-1"      ,   1,         9.0,         2.4,         0.0,         0.0,         0.0,         0.0
"Line.LN6169253-1"      ,   2,        -9.0,        -2.4
"Line.LN6350536-1"      ,   1,         5.4,         1.4,         0.0,         0.0,         0.0,         0.0
"Line.LN6350536-1"      ,   2,        -5.4,        -1.5
"Line.LN6048523-1"      ,   1,       149.6,        39.9,         0.0,         0.0,         0.0,         0.0
"Line.LN6048523-1"      ,   2,      -149.5,       -39.8
"Line.LN5594152-1"      ,   1,       166.9,        44.6,         0.0,         0.0,         0.0,         0.0
"Line.LN5594152-1"      ,   2,      -166.9,       -44.6
"Line.LN5865248-1"      ,   1,       832.0,       222.8,         0.0,         0.0,         0.0,         0.0
"Line.LN5865248-1"      ,   2,      -831.7,      -222.7
"Line.LN6046143-1"      ,   1,         3.9,         1.0,         0.0,         0.0,         0.0,         0.0
"Line.LN6046143-1"      ,   2,        -3.9,        -1.1
"Line.LN5803287-1"      ,   1,        21.0,         5.6,         0.0,         0.0,         0.0,         0.0
"Line.LN5803287-1"      ,   2,       -21.0,        -5.6
"Line.LN5589094-1"      ,   1,       230.8,        62.1,         0.0,         0.0,         0.0,         0.0
"Line.LN5589094-1"      ,   2,      -230.7,       -62.1
"Line.LN5954983-1"      ,   1,       118.4,        31.6,         0.0,         0.0,         0.0,         0.0
"Line.LN5954983-1"      ,   2,      -118.4,       -31.6
"Line.LN5924696-2"      ,   1,         5.4,         1.4,         0.0,         0.0,         0.0,         0.0
"Line.LN5924696-2"      ,   2,        -5.4,        -1.4
"Line.LN6506311-4"      ,   1,         6.2,         1.7,         0.0,         0.0,         0.0,         0.0
"Line.LN6506311-4"      ,   2,        -6.2,        -1.7
"Line.LN5653493-1"      ,   1,       118.4,        31.7,         0.0,         0.0,         0.0,         0.0
"Line.LN5653493-1"      ,   2,      -118.3,       -31.6
"Line.LN5684836-1"      ,   1,      6147.2,       693.6,         0.0,         0.0,         0.0,         0.0
"Line.LN5684836-1"      ,   2,     -6144.3,      -686.7
"Line.LN5715016-3"      ,   1,         5.4,         1.4,         0.0,         0.0,         0.0,         0.0
"Line.LN5715016-3"      ,   2,        -5.4,        -1.5
"Line.LN6138614-1"      ,   1,       884.1,      -694.4,         0.0,         0.0,         0.0,         0.0
"Line.LN6138614-1"      ,   2,      -883.2,       694.7
"Line.LN6077781-2"      ,   1,      5040.7,      1389.5,         0.0,         0.0,         0.0,         0.0
"Line.LN6077781-2"      ,   2,     -5030.8,     -1380.3
"Line.LN5675121-1"      ,   1,         4.1,         1.1,         0.0,         0.0,         0.0,         0.0
"Line.LN5675121-1"      ,   2,        -4.1,        -1.1
"Line.LN5773046-1"      ,   1,       245.6,        65.9,         0.0,         0.0,         0.0,         0.0
"Line.LN5773046-1"      ,   2,      -245.5,       -65.8
"Line.LN6380809-2"      ,   1,       733.5,       198.1,         0.0,         0.0,         0.0,         0.0
"Line.LN6380809-2"      ,   2,      -733.4,      -198.1
"Line.LN6018326-1"      ,   1,        12.4,         3.3,         0.0,         0.0,         0.0,         0.0
"Line.LN6018326-1"      ,   2,       -12.4,        -3.3
"Line.LN5472356-1"      ,   1,         4.0,         1.1,         0.0,         0.0,         0.0,         0.0
"Line.LN5472356-1"      ,   2,        -4.0,        -1.1
"Line.LN6139641-1"      ,   1,      7473.8,      1339.6,         0.9,         0.2,         0.0,         0.0
"Line.LN6139641-1"      ,   2,     -7471.5,     -1334.0
"Line.LN6018341-1"      ,   1,      2665.0,      -207.4,         0.0,         0.0,         0.0,         0.0
"Line.LN6018341-1"      ,   2,     -2664.3,       209.0
"Line.LN6017302-1"      ,   1,       292.3,        78.5,         0.0,         0.0,         0.0,         0.0
"Line.LN6017302-1"      ,   2,      -292.2,       -78.5
"Line.LN6199505-1"      ,   1,         3.9,         1.0,         0.0,         0.0,         0.0,         0.0
"Line.LN6199505-1"      ,   2,        -3.9,        -1.1
"Line.LN5682327-1"      ,   1,       136.5,        36.5,         0.0,         0.0,         0.0,         0.0
"Line.LN5682327-1"      ,   2,      -136.5,       -36.5
"Line.LN6290243-1"      ,   1,        20.2,         5.4,         0.0,         0.0,         0.0,         0.0
"Line.LN6290243-1"      ,   2,       -20.2,        -5.5
"Line.X8223_48332_SW"   ,   1,      1389.6,      -557.1,         0.0,         0.0,         0.0,         0.0
"Line.X8223_48332_SW"   ,   2,     -1389.6,       557.1
"Line.LN6413567-3"      ,   1,      1390.0,      -556.9,         0.0,         0.0,         0.0,         0.0
"Line.LN6413567-3"      ,   2,     -1389.6,       557.1
"Line.LN5591731-3"      ,   1,      6385.8,       828.8,         0.0,         0.0,         0.0,         0.0
"Line.LN5591731-3"      ,   2,     -6385.8,      -828.7
"Line.LN5653470-1"      ,   1,        29.3,         7.8,         0.0,         0.0,         0.0,         0.0
"Line.LN5653470-1"      ,   2,       -29.3,        -7.9
"Line.LN6017316-1"      ,   1,       244.0,        65.3,         0.0,         0.0,         0.0,         0.0
"Line.LN6017316-1"      ,   2,      -243.8,       -65.2
"Line.LN5926299-1"      ,   1,        19.9,         5.3,         0.0,         0.0,         0.0,         0.0
"Line.LN5926299-1"      ,   2,       -19.9,        -5.3
"Line.LN5683831-1"      ,   1,       864.1,       231.4,         0.0,         0.0,         0.0,         0.0
"Line.LN5683831-1"      ,   2,      -863.6,      -231.2
"Line.LN6352700-1"      ,   1,        36.1,         9.6,         0.0,         0.0,         0.0,         0.0
"Line.LN6352700-1"      ,   2,       -36.1,        -9.6
"Line.LN6047570-1"      ,   1,         5.4,         1.4,         0.0,         0.0,         0.0,         0.0
"Line.LN6047570-1"      ,   2,        -5.4,        -1.5
"Line.LN5624342-1"      ,   1,      6188.9,       721.1,         0.0,         0.0,         0.0,         0.0
"Line.LN5624342-1"      ,   2,     -6186.5,      -715.5
"Line.LN6259992-1"      ,   1,         9.1,         2.5,         0.0,         0.0,         0.0,         0.0
"Line.LN6259992-1"      ,   2,        -9.1,        -2.5
"Line.LN5841919-1"      ,   1,         6.0,         1.6,         0.0,         0.0,         0.0,         0.0
"Line.LN5841919-1"      ,   2,        -6.0,        -1.6
"Line.LN6380811-1"      ,   1,       113.6,        30.3,         0.0,         0.0,         0.0,         0.0
"Line.LN6380811-1"      ,   2,      -113.5,       -30.3
"Line.LN5683832-1"      ,   1,         9.0,         2.4,         0.0,         0.0,         0.0,         0.0
"Line.LN5683832-1"      ,   2,        -9.0,        -2.4
"Line.LN6077778-1"      ,   1,         9.0,         2.4,         0.0,         0.0,         0.0,         0.0
"Line.LN6077778-1"      ,   2,        -9.0,        -2.4
"Line.LN5561442-2"      ,   1,      7387.2,      1240.8,         0.0,         0.0,         0.0,         0.0
"Line.LN5561442-2"      ,   2,     -7383.9,     -1233.0
"Line.LN6259983-1"      ,   1,         9.9,         2.6,         0.0,         0.0,         0.0,         0.0
"Line.LN6259983-1"      ,   2,        -9.9,        -2.7
"Line.LN5865244-1"      ,   1,       111.5,        29.7,         0.0,         0.0,         0.0,         0.0
"Line.LN5865244-1"      ,   2,      -111.5,       -29.7
"Line.LN6350555-1"      ,   1,         5.9,         1.6,         0.0,         0.0,         0.0,         0.0
"Line.LN6350555-1"      ,   2,        -5.9,        -1.6
"Line.LN5714039-1"      ,   1,        39.7,        10.6,         0.0,         0.0,         0.0,         0.0
"Line.LN5714039-1"      ,   2,       -39.7,       -10.6
"Line.LN5889821-1"      ,   1,      6312.7,       780.8,         0.0,         0.0,         0.0,         0.0
"Line.LN5889821-1"      ,   2,     -6308.9,      -771.7
"Line.LN5804791-1"      ,   1,      1252.5,      -594.0,         0.0,         0.0,         0.0,         0.0
"Line.LN5804791-1"      ,   2,     -1251.0,       594.6
"Line.LN5653486-1"      ,   1,        31.2,         8.3,         0.0,         0.0,         0.0,         0.0
"Line.LN5653486-1"      ,   2,       -31.2,        -8.3
"Line.LN5926286-1"      ,   1,        30.7,         8.2,         0.0,         0.0,         0.0,         0.0
"Line.LN5926286-1"      ,   2,       -30.7,        -8.2
"Line.LN6318859-1"      ,   1,         0.0,        -0.0,         0.0,         0.0,         0.0,         0.0
"Line.LN6318859-1"      ,   2,        -0.0,        -0.0
"Line.LN5926316-1"      ,   1,        80.5,        21.6,         0.0,         0.0,         0.0,         0.0
"Line.LN5926316-1"      ,   2,       -80.5,       -21.6
"Line.LN5591703-1"      ,   1,        17.8,         4.7,         0.0,         0.0,         0.0,         0.0
"Line.LN5591703-1"      ,   2,       -17.8,        -4.7
"Line.LN5531333-1"      ,   1,        36.3,         9.7,         0.0,         0.0,         0.0,         0.0
"Line.LN5531333-1"      ,   2,       -36.3,        -9.7
"Line.LN6047581-1"      ,   1,         5.9,         1.6,         0.0,         0.0,         0.0,         0.0
"Line.LN6047581-1"      ,   2,        -5.9,        -1.6
"Line.LN6349077-1"      ,   1,        -0.0,        -0.0,         0.0,         0.0,         0.0,         0.0
"Line.LN6349077-1"      ,   2,         0.0,         0.0
"Line.LN6350574-1"      ,   1,       192.0,        50.8,         0.0,         0.0,         0.0,         0.0
"Line.LN6350574-1"      ,   2,      -191.9,       -50.9
"Line.LN6320343-1"      ,   1,       122.0,        32.6,         0.0,         0.0,         0.0,         0.0
"Line.LN6320343-1"      ,   2,      -122.0,       -32.6
"Line.LN81048100-5"     ,   1,       187.8,        50.3,         0.0,         0.0,         0.0,         0.0
"Line.LN81048100-5"     ,   2,      -187.8,       -50.3
"Line.LN6348946-1"      ,   1,         9.9,         2.6,         0.0,         0.0,         0.0,         0.0
"Line.LN6348946-1"      ,   2,        -9.9,        -2.6
"Line.LN5744351-1"      ,   1,        10.4,         2.8,         0.0,         0.0,         0.0,         0.0
"Line.LN5744351-1"      ,   2,       -10.4,        -2.8
"Line.LN5472342-1"      ,   1,         5.4,         1.5,         0.0,         0.0,         0.0,         0.0
"Line.LN5472342-1"      ,   2,        -5.4,        -1.5
"Line.LN5621849-1"      ,   1,        26.9,         7.2,         0.0,         0.0,         0.0,         0.0
"Line.LN5621849-1"      ,   2,       -26.9,        -7.2
"Line.LN6379375-1"      ,   1,         5.4,         1.4,         0.0,         0.0,         0.0,         0.0
"Line.LN6379375-1"      ,   2,        -5.4,        -1.4
"Line.LN6028890-1"      ,   1,        49.6,        13.4,         0.0,         0.0,         0.0,         0.0
"Line.LN6028890-1"      ,   2,       -49.6,       -13.4
"Line.LN6380822-1"      ,   1,      1379.5,       371.4,         0.0,         0.0,         0.0,         0.0
"Line.LN6380822-1"      ,   2,     -1378.6,      -370.6
"Line.LN5835131-1"      ,   1,       806.6,       217.0,         0.0,         0.0,         0.0,         0.0
"Line.LN5835131-1"      ,   2,      -806.3,      -216.8
"Line.LN5803262-7"      ,   1,         4.1,         1.1,         0.0,         0.0,         0.0,         0.0
"Line.LN5803262-7"      ,   2,        -4.1,        -1.1
"Line.LN81048089-1"     ,   1,       105.5,        28.1,         0.0,         0.0,         0.0,         0.0
"Line.LN81048089-1"     ,   2,      -105.5,       -28.1
"Line.LN6201699-1"      ,   1,        14.4,         3.8,         0.0,         0.0,         0.0,         0.0
"Line.LN6201699-1"      ,   2,       -14.4,        -3.8
"Line.LN5746548-1"      ,   1,       684.7,       182.5,         0.0,         0.0,         0.0,         0.0
"Line.LN5746548-1"      ,   2,      -684.6,      -182.5
"Line.LN5835174-1"      ,   1,       254.5,        68.0,         0.0,         0.0,         0.0,         0.0
"Line.LN5835174-1"      ,   2,      -254.1,       -67.8
"Line.LN6505947-4"      ,   1,       122.3,        32.6,         0.0,         0.0,         0.0,         0.0
"Line.LN6505947-4"      ,   2,      -122.3,       -32.6
"Line.LN5683833-1"      ,   1,       207.6,        55.6,         0.0,         0.0,         0.0,         0.0
"Line.LN5683833-1"      ,   2,      -207.2,       -55.5
"Line.LN5561439-3"      ,   1,       495.7,       133.3,         0.0,         0.0,         0.0,         0.0
"Line.LN5561439-3"      ,   2,      -495.6,      -133.1
"Line.LN6109190-1"      ,   1,        31.8,         8.6,         0.0,         0.0,         0.0,         0.0
"Line.LN6109190-1"      ,   2,       -31.8,        -8.6
"Line.LN6258435-2"      ,   1,        18.1,         4.9,         0.0,         0.0,         0.0,         0.0
"Line.LN6258435-2"      ,   2,       -18.1,        -4.9
"Line.LN5804819-1"      ,   1,         5.9,         1.6,         0.0,         0.0,         0.0,         0.0
"Line.LN5804819-1"      ,   2,        -5.9,        -1.6
"Line.LN5593215-1"      ,   1,       217.5,        58.1,         0.0,         0.0,         0.0,         0.0
"Line.LN5593215-1"      ,   2,      -217.4,       -58.0
"Line.LN5833717-1"      ,   1,      1030.8,       279.2,         0.0,         0.0,         0.0,         0.0
"Line.LN5833717-1"      ,   2,     -1030.5,      -279.0
"Line.LN6199557-1"      ,   1,      1015.6,       275.0,         0.0,         0.0,         0.0,         0.0
"Line.LN6199557-1"      ,   2,     -1015.1,      -274.6
"Line.LN5744332-1"      ,   1,         6.2,         1.7,         0.0,         0.0,         0.0,         0.0
"Line.LN5744332-1"      ,   2,        -6.2,        -1.7
"Line.LN5558790-1"      ,   1,      7564.3,      1419.3,        86.9,        16.3,         0.0,         0.0
"Line.LN5558790-1"      ,   2,     -7563.4,     -1417.3
"Line.LN6078692-1"      ,   1,       219.3,        58.8,         0.0,         0.0,         0.0,         0.0
"Line.LN6078692-1"      ,   2,      -219.2,       -58.7
"Line.LN5956482-1"      ,   1,       348.3,        93.3,         0.0,         0.0,         0.0,         0.0
"Line.LN5956482-1"      ,   2,      -348.2,       -93.3
"Line.LN5593225-1"      ,   1,         9.9,         2.7,         0.0,         0.0,         0.0,         0.0
"Line.LN5593225-1"      ,   2,        -9.9,        -2.7
"Line.LN6900591-26"     ,   1,        73.6,        19.8,         0.0,         0.0,         0.0,         0.0
"Line.LN6900591-26"     ,   2,       -73.6,       -19.8
"Line.LN5952393-1"      ,   1,        40.8,        10.9,         0.0,         0.0,         0.0,         0.0
"Line.LN5952393-1"      ,   2,       -40.8,       -10.9
"Line.LN6350531-1"      ,   1,        39.7,        10.4,         0.0,         0.0,         0.0,         0.0
"Line.LN6350531-1"      ,   2,       -39.6,       -10.5
"Line.LN5965099-10"     ,   1,       299.8,        79.4,         0.0,         0.0,         0.0,         0.0
"Line.LN5965099-10"     ,   2,      -299.8,       -79.4
"Line.LN6047568-1"      ,   1,       240.6,        64.7,         0.0,         0.0,         0.0,         0.0
"Line.LN6047568-1"      ,   2,      -240.2,       -64.4
"Line.LN5926292-1"      ,   1,         9.9,         2.7,         0.0,         0.0,         0.0,         0.0
"Line.LN5926292-1"      ,   2,        -9.9,        -2.7
"Line.LN6380806-1"      ,   1,        23.5,         6.3,         0.0,         0.0,         0.0,         0.0
"Line.LN6380806-1"      ,   2,       -23.5,        -6.3
"Line.LN6341781-3"      ,   1,         9.0,         2.4,         0.0,         0.0,         0.0,         0.0
"Line.LN6341781-3"      ,   2,        -9.0,        -2.4
"Line.LN8979367-1"      ,   1,        13.6,         3.4,         0.0,         0.0,         0.0,         0.0
"Line.LN8979367-1"      ,   2,       -13.6,        -3.4
"Line.LN6018340-1"      ,   1,        18.9,         5.1,         0.0,         0.0,         0.0,         0.0
"Line.LN6018340-1"      ,   2,       -18.9,        -5.1
"Line.LN6380847-1"      ,   1,       622.3,       166.6,         0.0,         0.0,         0.0,         0.0
"Line.LN6380847-1"      ,   2,      -621.8,      -166.5
"Line.LN8961797-1"      ,   1,        20.8,         5.4,         0.0,         0.0,         0.0,         0.0
"Line.LN8961797-1"      ,   2,       -20.8,        -5.5
"Line.LN6077797-1"      ,   1,        40.1,        10.8,         0.0,         0.0,         0.0,         0.0
"Line.LN6077797-1"      ,   2,       -40.1,       -10.8
"Line.LN6077773-1"      ,   1,        44.8,        11.9,         0.0,         0.0,         0.0,         0.0
"Line.LN6077773-1"      ,   2,       -44.8,       -12.0
"Line.LN5837496-4"      ,   1,         9.0,         2.4,         0.0,         0.0,         0.0,         0.0
"Line.LN5837496-4"      ,   2,        -9.0,        -2.4
"Line.LN5623392-1"      ,   1,        31.1,         8.3,         0.0,         0.0,         0.0,         0.0
"Line.LN5623392-1"      ,   2,       -31.1,        -8.4
"Line.LN5624380-1"      ,   1,        21.8,         5.7,         0.0,         0.0,         0.0,         0.0
"Line.LN5624380-1"      ,   2,       -21.8,        -5.8
"Line.LN6422809-2"      ,   1,      2708.9,       739.2,         0.0,         0.0,         0.0,         0.0
"Line.LN6422809-2"      ,   2,     -2708.7,      -739.1
"Line.LN5799561-1"      ,   1,      3077.6,       -66.1,         0.0,         0.0,         0.0,         0.0
"Line.LN5799561-1"      ,   2,     -3076.6,        68.6
"Line.LN6229818-1"      ,   1,         5.9,         1.6,         0.0,         0.0,         0.0,         0.0
"Line.LN6229818-1"      ,   2,        -5.9,        -1.6
"Line.LN5593230-1"      ,   1,       275.0,        74.1,         0.0,         0.0,         0.0,         0.0
"Line.LN5593230-1"      ,   2,      -274.8,       -74.0
"Line.LN5563901-3"      ,   1,      6299.2,       757.4,         0.0,         0.0,         0.0,         0.0
"Line.LN5563901-3"      ,   2,     -6297.1,      -752.5
"Line.LN6320339-1"      ,   1,        33.5,         8.9,         0.0,         0.0,         0.0,         0.0
"Line.LN6320339-1"      ,   2,       -33.5,        -9.0
"Line.LN5986927-1"      ,   1,         9.0,         2.4,         0.0,         0.0,         0.0,         0.0
"Line.LN5986927-1"      ,   2,        -9.0,        -2.4
"Line.LN6047567-1"      ,   1,         9.9,         2.6,         0.0,         0.0,         0.0,         0.0
"Line.LN6047567-1"      ,   2,        -9.9,        -2.6
"Line.LN5714047-1"      ,   1,       123.5,        33.0,         0.0,         0.0,         0.0,         0.0
"Line.LN5714047-1"      ,   2,      -123.5,       -33.0
"Line.LN5563934-1"      ,   1,        49.6,        13.2,         0.0,         0.0,         0.0,         0.0
"Line.LN5563934-1"      ,   2,       -49.5,       -13.2
"Line.LN6169249-3"      ,   1,        10.3,         2.8,         0.0,         0.0,         0.0,         0.0
"Line.LN6169249-3"      ,   2,       -10.3,        -2.8
"Line.LN6230800-1"      ,   1,         9.9,         2.6,         0.0,         0.0,         0.0,         0.0
"Line.LN6230800-1"      ,   2,        -9.9,        -2.6
"Line.LN5985339-2"      ,   1,        14.4,         3.8,         0.0,         0.0,         0.0,         0.0
"Line.LN5985339-2"      ,   2,       -14.4,        -3.8
"Line.LN5898059-3"      ,   1,        12.7,         3.4,         0.0,         0.0,         0.0,         0.0
"Line.LN5898059-3"      ,   2,       -12.7,        -3.4
"Line.LN5956457-2"      ,   1,       781.4,       209.6,         0.0,         0.0,         0.0,         0.0
"Line.LN5956457-2"      ,   2,      -781.3,      -209.5
"Line.LN5865229-1"      ,   1,        99.4,        26.3,         0.0,         0.0,         0.0,         0.0
"Line.LN5865229-1"      ,   2,       -99.4,       -26.3
"Line.LN6018331-1"      ,   1,      3015.9,       -89.3,         0.0,         0.0,         0.0,         0.0
"Line.LN6018331-1"      ,   2,     -3015.3,        90.7
"Line.LN6199535-1"      ,   1,        10.4,         2.8,         0.0,         0.0,         0.0,         0.0
"Line.LN6199535-1"      ,   2,       -10.4,        -2.8
"Line.LN5502538-1"      ,   1,       769.9,       205.7,         0.0,         0.0,         0.0,         0.0
"Line.LN5502538-1"      ,   2,      -769.2,      -205.5
"Line.LN5742816-2"      ,   1,        69.8,        18.7,         0.0,         0.0,         0.0,         0.0
"Line.LN5742816-2"      ,   2,       -69.8,       -18.7
"Line.LN6229803-3"      ,   1,        10.3,         2.8,         0.0,         0.0,         0.0,         0.0
"Line.LN6229803-3"      ,   2,       -10.3,        -2.8
"Line.LN5986930-1"      ,   1,        91.5,        24.4,         0.0,         0.0,         0.0,         0.0
"Line.LN5986930-1"      ,   2,       -91.5,       -24.3
"Line.LN6350532-1"      ,   1,         9.0,         2.4,         0.0,         0.0,         0.0,         0.0
"Line.LN6350532-1"      ,   2,        -9.0,        -2.4
"Line.LN5588016-3"      ,   1,       108.3,        28.9,         0.0,         0.0,         0.0,         0.0
"Line.LN5588016-3"      ,   2,      -108.3,       -28.9
...
"Line.V7173_48332_SW"   ,   1,      5835.8,       444.4,         0.0,         0.0,         0.0,         0.0
"Line.V7173_48332_SW"   ,   2,     -5835.6,      -444.2
"Line.LN5534969-2"      ,   1,      5836.6,       446.3,         0.0,         0.0,         0.0,         0.0
"Line.LN5534969-2"      ,   2,     -5835.8,      -444.4
"Line.LN6015891-1"      ,   1,         0.0,        -0.0,         0.0,         0.0,         0.0,         0.0
"Line.LN6015891-1"      ,   2,        -0.0,         0.0
"Line.LN5683816-1"      ,   1,       659.2,       178.0,         0.0,         0.0,         0.0,         0.0
"Line.LN5683816-1"      ,   2,      -658.5,      -177.7
"Line.LN6199561-1"      ,   1,        15.6,         4.2,         0.0,         0.0,         0.0,         0.0
"Line.LN6199561-1"      ,   2,       -15.6,        -4.2
"Line.LN6900591-12"     ,   1,        46.4,        12.5,         0.0,         0.0,         0.0,         0.0
"Line.LN6900591-12"     ,   2,       -46.4,       -12.5
"Line.LN6411363-1"      ,   1,        13.5,         3.6,         0.0,         0.0,         0.0,         0.0
"Line.LN6411363-1"      ,   2,       -13.5,        -3.6
"Line.LN6108130-6"      ,   1,         5.9,         1.6,         0.0,         0.0,         0.0,         0.0
"Line.LN6108130-6"      ,   2,        -5.9,        -1.6
"Line.LN5837516-1"      ,   1,        14.4,         3.9,         0.0,         0.0,         0.0,         0.0
"Line.LN5837516-1"      ,   2,       -14.4,        -3.9
"Line.LN6017301-4"      ,   1,         9.1,         2.5,         0.0,         0.0,         0.0,         0.0
"Line.LN6017301-4"      ,   2,        -9.1,        -2.5
"Line.LN5981121-1"      ,   1,         4.0,         1.0,         0.0,         0.0,         0.0,         0.0
"Line.LN5981121-1"      ,   2,        -4.0,        -1.1
"Line.LN81048107-4"     ,   1,        30.2,         7.9,         0.0,         0.0,         0.0,         0.0
"Line.LN81048107-4"     ,   2,       -30.2,        -8.0
"Line.LN5472374-1"      ,   1,       157.2,        42.0,         0.0,         0.0,         0.0,         0.0
"Line.LN5472374-1"      ,   2,      -157.1,       -42.0
"Line.LN5746550-2"      ,   1,         5.9,         1.6,         0.0,         0.0,         0.0,         0.0
"Line.LN5746550-2"      ,   2,        -5.9,        -1.6
"Line.LN5561437-1"      ,   1,       251.3,        66.6,         0.0,         0.0,         0.0,         0.0
"Line.LN5561437-1"      ,   2,      -251.2,       -66.6
"Line.LN6439986-3"      ,   1,        10.3,         2.8,         0.0,         0.0,         0.0,         0.0
"Line.LN6439986-3"      ,   2,       -10.3,        -2.8
"Line.LN5744324-1"      ,   1,        49.7,        13.2,         0.0,         0.0,         0.0,         0.0
"Line.LN5744324-1"      ,   2,       -49.7,       -13.2
"Line.LN6376708-1"      ,   1,        24.9,         6.7,         0.0,         0.0,         0.0,         0.0
"Line.LN6376708-1"      ,   2,       -24.9,        -6.7
"Line.LN5895816-2"      ,   1,        75.1,        20.1,         0.0,         0.0,         0.0,         0.0
"Line.LN5895816-2"      ,   2,       -75.1,       -20.1
"Line.LN5593235-1"      ,   1,        10.4,         2.8,         0.0,         0.0,         0.0,         0.0
"Line.LN5593235-1"      ,   2,       -10.4,        -2.8
"Line.LN81354563-2"     ,   1,        84.2,        22.4,         0.0,         0.0,         0.0,         0.0
"Line.LN81354563-2"     ,   2,       -84.2,       -22.4
"Line.LN5866260-1"      ,   1,        15.7,         4.2,         0.0,         0.0,         0.0,         0.0
"Line.LN5866260-1"      ,   2,       -15.7,        -4.2
"Line.LN6018243-1"      ,   1,        57.0,        15.2,         0.0,         0.0,         0.0,         0.0
"Line.LN6018243-1"      ,   2,       -57.0,       -15.3
"Line.LN5928743-3"      ,   1,        13.8,         3.6,         0.0,         0.0,         0.0,         0.0
"Line.LN5928743-3"      ,   2,       -13.8,        -3.6
"Line.LN5957501-1"      ,   1,         6.2,         1.7,         0.0,         0.0,         0.0,         0.0
"Line.LN5957501-1"      ,   2,        -6.2,        -1.7
"Line.LN6379357-1"      ,   1,        41.7,        11.1,         0.0,         0.0,         0.0,         0.0
"Line.LN6379357-1"      ,   2,       -41.7,       -11.1
"Line.LN6291252-2"      ,   1,      2670.7,      -205.2,         0.0,         0.0,         0.0,         0.0
"Line.LN6291252-2"      ,   2,     -2670.4,       205.9
"Line.LN6440002-3"      ,   1,       133.7,        35.7,         0.0,         0.0,         0.0,         0.0
"Line.LN6440002-3"      ,   2,      -133.7,       -35.7
"Line.LN6076346-1"      ,   1,       558.4,       150.0,         0.0,         0.0,         0.0,         0.0
"Line.LN6076346-1"      ,   2,      -557.5,      -149.6
"Line.LN8978752-1"      ,   1,       293.6,        79.7,         0.0,         0.0,         0.0,         0.0
"Line.LN8978752-1"      ,   2,      -293.6,       -79.7
"Line.LN5621834-1"      ,   1,        37.1,         9.9,         0.0,         0.0,         0.0,         0.0
"Line.LN5621834-1"      ,   2,       -37.1,        -9.9
"Line.LN6108123-1"      ,   1,         5.9,         1.6,         0.0,         0.0,         0.0,         0.0
"Line.LN6108123-1"      ,   2,        -5.9,        -1.6
"Line.LN6505952-4"      ,   1,         7.9,         2.1,         0.0,         0.0,         0.0,         0.0
"Line.LN6505952-4"      ,   2,        -7.9,        -2.1
"Line.LN5835159-1"      ,   1,         6.0,         1.6,         0.0,         0.0,         0.0,         0.0
"Line.LN5835159-1"      ,   2,        -6.0,        -1.6
"Line.LN5698090-2"      ,   1,        74.1,        19.2,         0.0,         0.0,         0.0,         0.0
"Line.LN5698090-2"      ,   2,       -74.1,       -19.2
"Line.LN5714050-1"      ,   1,        14.5,         3.9,         0.0,         0.0,         0.0,         0.0
"Line.LN5714050-1"      ,   2,       -14.5,        -3.9
"Line.LN5502529-1"      ,   1,        14.9,         4.0,         0.0,         0.0,         0.0,         0.0
"Line.LN5502529-1"      ,   2,       -14.9,        -4.0
"Line.LN5594236-1"      ,   1,      3070.2,       -72.1,         0.0,         0.0,         0.0,         0.0
"Line.LN5594236-1"      ,   2,     -3069.6,        73.5
"Line.LN5593248-1"      ,   1,         5.9,         1.6,         0.0,         0.0,         0.0,         0.0
"Line.LN5593248-1"      ,   2,        -5.9,        -1.6
"Line.LN5865272-1"      ,   1,       540.6,       144.9,         0.0,         0.0,         0.0,         0.0
"Line.LN5865272-1"      ,   2,      -540.3,      -144.8
"Line.LN5924696-3"      ,   1,         5.4,         1.4,         0.0,         0.0,         0.0,         0.0
"Line.LN5924696-3"      ,   2,        -5.4,        -1.4
"Line.LN5589096-1"      ,   1,         9.0,         2.4,         0.0,         0.0,         0.0,         0.0
"Line.LN5589096-1"      ,   2,        -9.0,        -2.4
"Line.LN6017295-1"      ,   1,       321.2,        86.5,         0.0,         0.0,         0.0,         0.0
"Line.LN6017295-1"      ,   2,      -320.8,       -86.3
"Line.LN5970852-1"      ,   1,       206.1,        55.0,         0.0,         0.0,         0.0,         0.0
"Line.LN5970852-1"      ,   2,      -206.1,       -55.0
"Line.LN5683820-1"      ,   1,        10.3,         2.8,         0.0,         0.0,         0.0,         0.0
"Line.LN5683820-1"      ,   2,       -10.3,        -2.8
"Line.LN6286966-3"      ,   1,         5.9,         1.6,         0.0,         0.0,         0.0,         0.0
"Line.LN6286966-3"      ,   2,        -5.9,        -1.6
"Line.LN6167715-1"      ,   1,         5.9,         1.6,         0.0,         0.0,         0.0,         0.0
"Line.LN6167715-1"      ,   2,        -5.9,        -1.6
"Line.LN6108140-2"      ,   1,         9.1,         2.5,         0.0,         0.0,         0.0,         0.0
"Line.LN6108140-2"      ,   2,        -9.1,        -2.5
"Line.LN6228279-1"      ,   1,        19.9,         5.3,         0.0,         0.0,         0.0,         0.0
"Line.LN6228279-1"      ,   2,       -19.9,        -5.3
"Line.LN5803264-2"      ,   1,         9.1,         2.4,         0.0,         0.0,         0.0,         0.0
"Line.LN5803264-2"      ,   2,        -9.1,        -2.4
"Line.LN6132680-1"      ,   1,       634.7,       171.3,         0.0,         0.0,         0.0,         0.0
"Line.LN6132680-1"      ,   2,      -633.8,      -170.9
"Line.LN5531195-1"      ,   1,      2179.9,      -341.9,         0.0,         0.0,         0.0,         0.0
"Line.LN5531195-1"      ,   2,     -2179.7,       342.3
"Line.LN5985361-1"      ,   1,       580.3,       154.3,         0.0,         0.0,         0.0,         0.0
"Line.LN5985361-1"      ,   2,      -579.5,      -154.1
"Line.LN6102293-1"      ,   1,        32.4,         8.6,         0.0,         0.0,         0.0,         0.0
"Line.LN6102293-1"      ,   2,       -32.4,        -8.6
"Line.LN8989758-1"      ,   1,        59.2,        15.8,         0.0,         0.0,         0.0,         0.0
"Line.LN8989758-1"      ,   2,       -59.2,       -15.8
"Line.LN6229790-1"      ,   1,        26.0,         6.9,         0.0,         0.0,         0.0,         0.0
"Line.LN6229790-1"      ,   2,       -26.0,        -6.9
"Line.LN5956469-1"      ,   1,        20.7,         5.5,         0.0,         0.0,         0.0,         0.0
"Line.LN5956469-1"      ,   2,       -20.7,        -5.5
"Line.LN5803270-3"      ,   1,        16.6,         4.4,         0.0,         0.0,         0.0,         0.0
"Line.LN5803270-3"      ,   2,       -16.6,        -4.4
"Line.LN81048102-6"     ,   1,       123.9,        33.0,         0.0,         0.0,         0.0,         0.0
"Line.LN81048102-6"     ,   2,      -123.9,       -33.0
"Line.LN6440070-1"      ,   1,         0.0,        -0.0,         0.0,         0.0,         0.0,         0.0
"Line.LN6440070-1"      ,   2,        -0.0,         0.0
"Line.LN6048626-1"      ,   1,      7483.1,      1352.9,         0.9,         0.2,         0.0,         0.0
"Line.LN6048626-1"      ,   2,     -7479.8,     -1345.0
"Line.LN6076248-1"      ,   1,       370.1,        99.5,         0.0,         0.0,         0.0,         0.0
"Line.LN6076248-1"      ,   2,      -370.0,       -99.5
"Line.LN6137083-1"      ,   1,        -0.0,        -0.0,         0.0,         0.0,         0.0,         0.0
"Line.LN6137083-1"      ,   2,         0.0,         0.0
"Line.LN6286261-1"      ,   1,        15.0,         4.0,         0.0,         0.0,         0.0,         0.0
"Line.LN6286261-1"      ,   2,       -15.0,        -4.1
"Line.LN5653477-1"      ,   1,        14.9,         4.0,         0.0,         0.0,         0.0,         0.0
"Line.LN5653477-1"      ,   2,       -14.9,        -4.0
"Line.LN6078810-1"      ,   1,        13.7,         3.7,         0.0,         0.0,         0.0,         0.0
"Line.LN6078810-1"      ,   2,       -13.7,        -3.7
"Line.LN6199526-1"      ,   1,         5.4,         1.4,         0.0,         0.0,         0.0,         0.0
"Line.LN6199526-1"      ,   2,        -5.4,        -1.4
"Line.LN6108125-2"      ,   1,      5853.4,       477.9,         0.0,         0.0,         0.0,         0.0
"Line.LN6108125-2"      ,   2,     -5851.4,      -473.1
"Line.LN6108149-1"      ,   1,        12.6,         3.4,         0.0,         0.0,         0.0,         0.0
"Line.LN6108149-1"      ,   2,       -12.6,        -3.4
"Line.LN6230759-1"      ,   1,         5.9,         1.6,         0.0,         0.0,         0.0,         0.0
"Line.LN6230759-1"      ,   2,        -5.9,        -1.6
"Line.LN8979249-1"      ,   1,        58.8,        15.5,         0.0,         0.0,         0.0,         0.0
"Line.LN8979249-1"      ,   2,       -58.8,       -15.6
"Line.LN5865237-1"      ,   1,         5.9,         1.6,         0.0,         0.0,         0.0,         0.0
"Line.LN5865237-1"      ,   2,        -5.9,        -1.6
"Line.LN5706733-2"      ,   1,        20.7,         5.5,         0.0,         0.0,         0.0,         0.0
"Line.LN5706733-2"      ,   2,       -20.7,        -5.5
"Line.LN5745348-1"      ,   1,      2952.9,      -113.2,         0.0,         0.0,         0.0,         0.0
"Line.LN5745348-1"      ,   2,     -2952.2,       114.7
"Line.LN5898059-2"      ,   1,        12.7,         3.4,         0.0,         0.0,         0.0,         0.0
"Line.LN5898059-2"      ,   2,       -12.7,        -3.4
"Line.LN5744367-1"      ,   1,       169.6,        45.4,         0.0,         0.0,         0.0,         0.0
"Line.LN5744367-1"      ,   2,      -169.5,       -45.3
"Line.LN5773136-1"      ,   1,         4.1,         1.1,         0.0,         0.0,         0.0,         0.0
"Line.LN5773136-1"      ,   2,        -4.1,        -1.1
"Line.LN5472403-2"      ,   1,       226.0,        59.9,         0.0,         0.0,         0.0,         0.0
"Line.LN5472403-2"      ,   2,      -226.0,       -59.9
"Line.LN5712496-1"      ,   1,        13.7,         3.7,         0.0,         0.0,         0.0,         0.0
"Line.LN5712496-1"      ,   2,       -13.7,        -3.7
"Line.LN5772710-1"      ,   1,        81.3,        21.8,         0.0,         0.0,         0.0,         0.0
"Line.LN5772710-1"      ,   2,       -81.3,       -21.8
"Line.LN6139544-1"      ,   1,       219.1,        58.7,         0.0,         0.0,         0.0,         0.0
"Line.LN6139544-1"      ,   2,      -218.8,       -58.5
"Line.LN6015788-2"      ,   1,        93.3,        25.1,         0.0,         0.0,         0.0,         0.0
"Line.LN6015788-2"      ,   2,       -93.3,       -25.1
"Line.LN5591702-1"      ,   1,       162.5,        43.5,         0.0,         0.0,         0.0,         0.0
"Line.LN5591702-1"      ,   2,      -162.4,       -43.5
"Line.LN5986923-1"      ,   1,        83.4,        22.1,         0.0,         0.0,         0.0,         0.0
"Line.LN5986923-1"      ,   2,       -83.4,       -22.1
"Line.LN6301772-2"      ,   1,        62.3,        16.6,         0.0,         0.0,         0.0,         0.0
"Line.LN6301772-2"      ,   2,       -62.3,       -16.6
"Line.LN6001653-2"      ,   1,       509.5,       135.9,         0.0,         0.0,         0.0,         0.0
"Line.LN6001653-2"      ,   2,      -509.3,      -135.8
"Line.LN6017283-1"      ,   1,        25.8,         6.9,         0.0,         0.0,         0.0,         0.0
"Line.LN6017283-1"      ,   2,       -25.7,        -6.9
"Line.LN5686079-1"      ,   1,      1146.7,       306.2,         0.0,         0.0,         0.0,         0.0
"Line.LN5686079-1"      ,   2,     -1146.2,      -305.8
"Line.LN5527264-7"      ,   1,      5855.9,       483.9,         0.0,         0.0,         0.0,         0.0
"Line.LN5527264-7"      ,   2,     -5855.0,      -481.7
"Line.LN5683813-1"      ,   1,         5.4,         1.4,         0.0,         0.0,         0.0,         0.0
"Line.LN5683813-1"      ,   2,        -5.4,        -1.4
"Line.LN5986935-1"      ,   1,       751.4,       201.2,         0.0,         0.0,         0.0,         0.0
"Line.LN5986935-1"      ,   2,      -750.8,      -201.0
"Line.LN5956457-3"      ,   1,       781.3,       209.5,         0.0,         0.0,         0.0,         0.0
"Line.LN5956457-3"      ,   2,      -781.2,      -209.4
"Line.LN5654471-1"      ,   1,      2977.4,      -105.3,         0.0,         0.0,         0.0,         0.0
"Line.LN5654471-1"      ,   2,     -2976.7,       106.9
"Line.LN6409800-1"      ,   1,         9.0,         2.4,         0.0,         0.0,         0.0,         0.0
"Line.LN6409800-1"      ,   2,        -9.0,        -2.4
"Line.LN6411365-1"      ,   1,         9.0,         2.4,         0.0,         0.0,         0.0,         0.0
"Line.LN6411365-1"      ,   2,        -9.0,        -2.4
"Line.LN6320328-1"      ,   1,       114.3,        30.4,         0.0,         0.0,         0.0,         0.0
"Line.LN6320328-1"      ,   2,      -114.2,       -30.4
"Line.LN5712477-3"      ,   1,       108.8,        29.0,         0.0,         0.0,         0.0,         0.0
"Line.LN5712477-3"      ,   2,      -108.8,       -29.0
"Line.LN5621857-3"      ,   1,         5.4,         1.4,         0.0,         0.0,         0.0,         0.0
"Line.LN5621857-3"      ,   2,        -5.4,        -1.5
"Line.LN6440071-1"      ,   1,       122.6,        32.8,         0.0,         0.0,         0.0,         0.0
"Line.LN6440071-1"      ,   2,      -122.5,       -32.8
"Line.LN5472355-1"      ,   1,        14.5,         3.9,         0.0,         0.0,         0.0,         0.0
"Line.LN5472355-1"      ,   2,       -14.5,        -3.9
"Line.LN6351523-3"      ,   1,       404.7,       109.1,         0.0,         0.0,         0.0,         0.0
"Line.LN6351523-3"      ,   2,      -404.6,      -109.0
...
"Line.V9287_48332_SW"   ,   1,       153.1,        41.0,         0.0,         0.0,         0.0,         0.0
"Line.V9287_48332_SW"   ,   2,      -153.1,       -41.0
"Line.LN6019477-1"      ,   1,       153.1,        41.0,         0.0,         0.0,         0.0,         0.0
"Line.LN6019477-1"      ,   2,      -153.1,       -41.0
"Line.LN5593227-1"      ,   1,        19.8,         5.3,         0.0,         0.0,         0.0,         0.0
"Line.LN5593227-1"      ,   2,       -19.8,        -5.3
"Line.LN6409869-1"      ,   1,         0.0,        -0.0,         0.0,         0.0,         0.0,         0.0
"Line.LN6409869-1"      ,   2,         0.0,         0.0
"Line.LN6321419-2"      ,   1,        35.7,         9.4,         0.0,         0.0,         0.0,         0.0
"Line.LN6321419-2"      ,   2,       -35.7,        -9.4
"Line.LN6348954-1"      ,   1,        10.4,         2.8,         0.0,         0.0,         0.0,         0.0
"Line.LN6348954-1"      ,   2,       -10.4,        -2.8
"Line.LN6201695-2"      ,   1,         9.1,         2.5,         0.0,         0.0,         0.0,         0.0
"Line.LN6201695-2"      ,   2,        -9.1,        -2.5
"Line.LN6048635-1"      ,   1,        35.7,         9.4,         0.0,         0.0,         0.0,         0.0
"Line.LN6048635-1"      ,   2,       -35.7,        -9.4
"Line.LN6199519-1"      ,   1,       209.9,        56.2,         0.0,         0.0,         0.0,         0.0
"Line.LN6199519-1"      ,   2,      -209.8,       -56.2
"Line.LN6505938-4"      ,   1,        19.8,         5.3,         0.0,         0.0,         0.0,         0.0
"Line.LN6505938-4"      ,   2,       -19.8,        -5.3
"Line.LN5472375-1"      ,   1,       656.3,       174.8,         0.0,         0.0,         0.0,         0.0
"Line.LN5472375-1"      ,   2,      -656.2,      -174.8
"Line.LN5835124-1"      ,   1,        15.1,         4.1,         0.0,         0.0,         0.0,         0.0
"Line.LN5835124-1"      ,   2,       -15.1,        -4.1
"Line.LN6103927-1"      ,   1,        18.1,         4.8,         0.0,         0.0,         0.0,         0.0
"Line.LN6103927-1"      ,   2,       -18.1,        -4.8
"Line.LN6138622-1"      ,   1,        18.1,         4.9,         0.0,         0.0,         0.0,         0.0
"Line.LN6138622-1"      ,   2,       -18.1,        -4.9
"Line.LN5776673-1"      ,   1,        51.9,        13.9,         0.0,         0.0,         0.0,         0.0
"Line.LN5776673-1"      ,   2,       -51.9,       -13.9
"Line.LN6074369-1"      ,   1,        19.8,         5.3,         0.0,         0.0,         0.0,         0.0
"Line.LN6074369-1"      ,   2,       -19.8,        -5.3
"Line.LN5621826-1"      ,   1,         9.1,         2.5,         0.0,         0.0,         0.0,         0.0
"Line.LN5621826-1"      ,   2,        -9.1,        -2.5
"Line.LN6506312-2"      ,   1,        62.4,        16.7,         0.0,         0.0,         0.0,         0.0
"Line.LN6506312-2"      ,   2,       -62.4,       -16.7
"Line.LN6046046-1"      ,   1,         9.9,         2.7,         0.0,         0.0,         0.0,         0.0
"Line.LN6046046-1"      ,   2,        -9.9,        -2.7
"Line.LN6138589-1"      ,   1,         4.1,         1.1,         0.0,         0.0,         0.0,         0.0
"Line.LN6138589-1"      ,   2,        -4.1,        -1.1
"Line.LN6258445-1"      ,   1,        10.3,         2.8,         0.0,         0.0,         0.0,         0.0
"Line.LN6258445-1"      ,   2,       -10.3,        -2.8
"Line.LN5653480-1"      ,   1,      5218.1,      1479.8,         0.0,         0.0,         0.0,         0.0
"Line.LN5653480-1"      ,   2,     -5213.6,     -1475.5
"Line.LN5717630-1"      ,   1,       122.5,        32.6,         0.0,         0.0,         0.0,         0.0
"Line.LN5717630-1"      ,   2,      -122.5,       -32.6
"Line.LN5956463-1"      ,   1,      1227.8,      -600.9,         0.0,         0.0,         0.0,         0.0
"Line.LN5956463-1"      ,   2,     -1225.9,       601.6
"Line.LN5744328-1"      ,   1,        55.6,        14.7,         0.0,         0.0,         0.0,         0.0
"Line.LN5744328-1"      ,   2,       -55.6,       -14.7
"Line.LN8979254-1"      ,   1,        59.3,        15.9,         0.0,         0.0,         0.0,         0.0
"Line.LN8979254-1"      ,   2,       -59.3,       -15.9
"Line.LN5620694-1"      ,   1,        14.4,         3.9,         0.0,         0.0,         0.0,         0.0
"Line.LN5620694-1"      ,   2,       -14.4,        -3.9
"Line.LN6048634-1"      ,   1,     11486.5,      1039.4,      3122.8,       282.6,         0.0,         0.0
"Line.LN6048634-1"      ,   2,    -11481.1,     -1026.6
"Line.LN5895779-1"      ,   1,         5.4,         1.4,         0.0,         0.0,         0.0,         0.0
"Line.LN5895779-1"      ,   2,        -5.4,        -1.4
"Line.LN5951197-2"      ,   1,         6.0,         1.6,         0.0,         0.0,         0.0,         0.0
"Line.LN5951197-2"      ,   2,        -6.0,        -1.6
"Line.LN5563942-3"      ,   1,     10730.4,      1440.7,      2536.6,       340.6,         0.0,         0.0
"Line.LN5563942-3"      ,   2,    -10725.7,     -1429.7
"Line.LN5835123-1"      ,   1,        15.8,         4.0,         0.0,         0.0,         0.0,         0.0
"Line.LN5835123-1"      ,   2,       -15.8,        -4.0
"Line.LN5956483-1"      ,   1,        20.1,         5.4,         0.0,         0.0,         0.0,         0.0
"Line.LN5956483-1"      ,   2,       -20.1,        -5.4
"Line.LN6291153-1"      ,   1,        13.7,         3.7,         0.0,         0.0,         0.0,         0.0
"Line.LN6291153-1"      ,   2,       -13.7,        -3.7
"Line.LN5683841-1"      ,   1,        18.9,         5.0,         0.0,         0.0,         0.0,         0.0
"Line.LN5683841-1"      ,   2,       -18.9,        -5.0
"Line.LN5804802-1"      ,   1,      1142.1,      -625.1,         0.0,         0.0,         0.0,         0.0
"Line.LN5804802-1"      ,   2,     -1140.6,       625.6
"Line.LN6167753-1"      ,   1,         3.9,         1.0,         0.0,         0.0,         0.0,         0.0
"Line.LN6167753-1"      ,   2,        -3.9,        -1.1
"Line.LN6047569-1"      ,   1,         6.2,         1.6,         0.0,         0.0,         0.0,         0.0
"Line.LN6047569-1"      ,   2,        -6.2,        -1.7
"Line.LN6229809-1"      ,   1,       684.6,       182.5,         0.0,         0.0,         0.0,         0.0
"Line.LN6229809-1"      ,   2,      -683.9,      -182.3
"Line.LN5804781-1"      ,   1,        78.5,        20.9,         0.0,         0.0,         0.0,         0.0
"Line.LN5804781-1"      ,   2,       -78.4,       -20.9
"Line.LN6352701-1"      ,   1,        -0.0,        -0.0,         0.0,         0.0,         0.0,         0.0
"Line.LN6352701-1"      ,   2,         0.0,        -0.0
"Line.LN5955074-2"      ,   1,        76.5,        20.0,         0.0,         0.0,         0.0,         0.0
"Line.LN5955074-2"      ,   2,       -76.5,       -20.0
"Line.LN6229805-1"      ,   1,        22.7,         6.0,         0.0,         0.0,         0.0,         0.0
"Line.LN6229805-1"      ,   2,       -22.7,        -6.1
"Line.LN6411376-1"      ,   1,        97.5,        26.0,         0.0,         0.0,         0.0,         0.0
"Line.LN6411376-1"      ,   2,       -97.5,       -26.0
"Line.LN5654485-1"      ,   1,         3.9,         1.0,         0.0,         0.0,         0.0,         0.0
"Line.LN5654485-1"      ,   2,        -3.9,        -1.0
"Line.LN5746550-3"      ,   1,         5.9,         1.6,         0.0,         0.0,         0.0,         0.0
"Line.LN5746550-3"      ,   2,        -5.9,        -1.6
"Line.LN6232159-1"      ,   1,         3.6,         1.0,         0.0,         0.0,         0.0,         0.0
"Line.LN6232159-1"      ,   2,        -3.6,        -1.0
"Line.LN6412346-1"      ,   1,        10.4,         2.8,         0.0,         0.0,         0.0,         0.0
"Line.LN6412346-1"      ,   2,       -10.4,        -2.8
"Line.LN6350548-1"      ,   1,        24.9,         6.7,         0.0,         0.0,         0.0,         0.0
"Line.LN6350548-1"      ,   2,       -24.9,        -6.7
"Line.LN6106658-1"      ,   1,       162.0,        43.2,         0.0,         0.0,         0.0,         0.0
"Line.LN6106658-1"      ,   2,      -162.0,       -43.2
"Line.LN6047554-1"      ,   1,        10.0,         2.7,         0.0,         0.0,         0.0,         0.0
"Line.LN6047554-1"      ,   2,       -10.0,        -2.7
"Line.LN5956458-1"      ,   1,         9.9,         2.7,         0.0,         0.0,         0.0,         0.0
"Line.LN5956458-1"      ,   2,        -9.9,        -2.7
...